
---------- Begin Simulation Statistics ----------
simSeconds                                   0.010225                       # Number of seconds simulated (Second)
simTicks                                  10224903500                       # Number of ticks simulated (Tick)
finalTick                                 10224903500                       # Number of ticks from beginning of simulation (restored from checkpoints and never reset) (Tick)
simFreq                                  1000000000000                       # The number of ticks per simulated second ((Tick/Second))
hostSeconds                                    132.54                       # Real time elapsed on the host (Second)
hostTickRate                                 77143423                       # The number of ticks simulated per host second (ticks/s) ((Tick/Second))
hostMemory                                     638584                       # Number of bytes of host memory used (Byte)
simInsts                                     41841366                       # Number of instructions simulated (Count)
simOps                                       44377976                       # Number of ops (including micro ops) simulated (Count)
hostInstRate                                   315679                       # Simulator instruction rate (inst/s) ((Count/Second))
hostOpRate                                     334816                       # Simulator op (including micro ops) rate (op/s) ((Count/Second))
system.clk_domain.clock                          1000                       # Clock period in ticks (Tick)
system.cpu.numCycles                         20449808                       # Number of cpu cycles simulated (Cycle)
system.cpu.numWorkItemsStarted                      0                       # Number of work items this cpu started (Count)
system.cpu.numWorkItemsCompleted                    0                       # Number of work items this cpu completed (Count)
system.cpu.instsAdded                        45811075                       # Number of instructions added to the IQ (excludes non-spec) (Count)
system.cpu.nonSpecInstsAdded                    42691                       # Number of non-speculative instructions added to the IQ (Count)
system.cpu.instsIssued                       45206322                       # Number of instructions issued (Count)
system.cpu.squashedInstsIssued                    854                       # Number of squashed instructions issued (Count)
system.cpu.squashedInstsExamined              1475789                       # Number of squashed instructions iterated over during squash; mainly for profiling (Count)
system.cpu.squashedOperandsExamined           3987840                       # Number of squashed operands that are examined and possibly removed from graph (Count)
system.cpu.squashedNonSpecRemoved                 532                       # Number of squashed non-spec instructions that were removed (Count)
system.cpu.numIssuedDist::samples            20400726                       # Number of insts issued each cycle
system.cpu.numIssuedDist::mean               2.215917                       # Number of insts issued each cycle
system.cpu.numIssuedDist::stdev              2.259954                       # Number of insts issued each cycle
system.cpu.numIssuedDist::underflows                0      0.00%      0.00% # Number of insts issued each cycle
system.cpu.numIssuedDist::0                   6603172     32.37%     32.37% # Number of insts issued each cycle
system.cpu.numIssuedDist::1                   3958843     19.41%     51.77% # Number of insts issued each cycle
system.cpu.numIssuedDist::2                   1370698      6.72%     58.49% # Number of insts issued each cycle
system.cpu.numIssuedDist::3                   3263605     16.00%     74.49% # Number of insts issued each cycle
system.cpu.numIssuedDist::4                    770259      3.78%     78.26% # Number of insts issued each cycle
system.cpu.numIssuedDist::5                   2432465     11.92%     90.19% # Number of insts issued each cycle
system.cpu.numIssuedDist::6                   1216911      5.97%     96.15% # Number of insts issued each cycle
system.cpu.numIssuedDist::7                    107743      0.53%     96.68% # Number of insts issued each cycle
system.cpu.numIssuedDist::8                    677030      3.32%    100.00% # Number of insts issued each cycle
system.cpu.numIssuedDist::overflows                 0      0.00%    100.00% # Number of insts issued each cycle
system.cpu.numIssuedDist::min_value                 0                       # Number of insts issued each cycle
system.cpu.numIssuedDist::max_value                 8                       # Number of insts issued each cycle
system.cpu.numIssuedDist::total              20400726                       # Number of insts issued each cycle
system.cpu.statFuBusy::No_OpClass                   0      0.00%      0.00% # attempts to use FU when none available (Count)
system.cpu.statFuBusy::IntAlu                       0      0.00%      0.00% # attempts to use FU when none available (Count)
system.cpu.statFuBusy::IntMult                      0      0.00%      0.00% # attempts to use FU when none available (Count)
system.cpu.statFuBusy::IntDiv                       0      0.00%      0.00% # attempts to use FU when none available (Count)
system.cpu.statFuBusy::FloatAdd                     0      0.00%      0.00% # attempts to use FU when none available (Count)
system.cpu.statFuBusy::FloatCmp                     0      0.00%      0.00% # attempts to use FU when none available (Count)
system.cpu.statFuBusy::FloatCvt                     0      0.00%      0.00% # attempts to use FU when none available (Count)
system.cpu.statFuBusy::FloatMult                    0      0.00%      0.00% # attempts to use FU when none available (Count)
system.cpu.statFuBusy::FloatMultAcc                 0      0.00%      0.00% # attempts to use FU when none available (Count)
system.cpu.statFuBusy::FloatDiv                     0      0.00%      0.00% # attempts to use FU when none available (Count)
system.cpu.statFuBusy::FloatMisc                    0      0.00%      0.00% # attempts to use FU when none available (Count)
system.cpu.statFuBusy::FloatSqrt                    0      0.00%      0.00% # attempts to use FU when none available (Count)
system.cpu.statFuBusy::SimdAdd                      0      0.00%      0.00% # attempts to use FU when none available (Count)
system.cpu.statFuBusy::SimdAddAcc                   0      0.00%      0.00% # attempts to use FU when none available (Count)
system.cpu.statFuBusy::SimdAlu                      0      0.00%      0.00% # attempts to use FU when none available (Count)
system.cpu.statFuBusy::SimdCmp                      0      0.00%      0.00% # attempts to use FU when none available (Count)
system.cpu.statFuBusy::SimdCvt                      0      0.00%      0.00% # attempts to use FU when none available (Count)
system.cpu.statFuBusy::SimdMisc                     0      0.00%      0.00% # attempts to use FU when none available (Count)
system.cpu.statFuBusy::SimdMult                     0      0.00%      0.00% # attempts to use FU when none available (Count)
system.cpu.statFuBusy::SimdMultAcc                  0      0.00%      0.00% # attempts to use FU when none available (Count)
system.cpu.statFuBusy::SimdShift                    0      0.00%      0.00% # attempts to use FU when none available (Count)
system.cpu.statFuBusy::SimdShiftAcc                 0      0.00%      0.00% # attempts to use FU when none available (Count)
system.cpu.statFuBusy::SimdDiv                      0      0.00%      0.00% # attempts to use FU when none available (Count)
system.cpu.statFuBusy::SimdSqrt                     0      0.00%      0.00% # attempts to use FU when none available (Count)
system.cpu.statFuBusy::SimdFloatAdd                 0      0.00%      0.00% # attempts to use FU when none available (Count)
system.cpu.statFuBusy::SimdFloatAlu                 0      0.00%      0.00% # attempts to use FU when none available (Count)
system.cpu.statFuBusy::SimdFloatCmp                 0      0.00%      0.00% # attempts to use FU when none available (Count)
system.cpu.statFuBusy::SimdFloatCvt                 0      0.00%      0.00% # attempts to use FU when none available (Count)
system.cpu.statFuBusy::SimdFloatDiv                 0      0.00%      0.00% # attempts to use FU when none available (Count)
system.cpu.statFuBusy::SimdFloatMisc                0      0.00%      0.00% # attempts to use FU when none available (Count)
system.cpu.statFuBusy::SimdFloatMult                0      0.00%      0.00% # attempts to use FU when none available (Count)
system.cpu.statFuBusy::SimdFloatMultAcc             0      0.00%      0.00% # attempts to use FU when none available (Count)
system.cpu.statFuBusy::SimdFloatSqrt                0      0.00%      0.00% # attempts to use FU when none available (Count)
system.cpu.statFuBusy::SimdReduceAdd                0      0.00%      0.00% # attempts to use FU when none available (Count)
system.cpu.statFuBusy::SimdReduceAlu                0      0.00%      0.00% # attempts to use FU when none available (Count)
system.cpu.statFuBusy::SimdReduceCmp                0      0.00%      0.00% # attempts to use FU when none available (Count)
system.cpu.statFuBusy::SimdFloatReduceAdd            0      0.00%      0.00% # attempts to use FU when none available (Count)
system.cpu.statFuBusy::SimdFloatReduceCmp            0      0.00%      0.00% # attempts to use FU when none available (Count)
system.cpu.statFuBusy::SimdAes                      0      0.00%      0.00% # attempts to use FU when none available (Count)
system.cpu.statFuBusy::SimdAesMix                   0      0.00%      0.00% # attempts to use FU when none available (Count)
system.cpu.statFuBusy::SimdSha1Hash                 0      0.00%      0.00% # attempts to use FU when none available (Count)
system.cpu.statFuBusy::SimdSha1Hash2                0      0.00%      0.00% # attempts to use FU when none available (Count)
system.cpu.statFuBusy::SimdSha256Hash               0      0.00%      0.00% # attempts to use FU when none available (Count)
system.cpu.statFuBusy::SimdSha256Hash2              0      0.00%      0.00% # attempts to use FU when none available (Count)
system.cpu.statFuBusy::SimdShaSigma2                0      0.00%      0.00% # attempts to use FU when none available (Count)
system.cpu.statFuBusy::SimdShaSigma3                0      0.00%      0.00% # attempts to use FU when none available (Count)
system.cpu.statFuBusy::SimdPredAlu                  0      0.00%      0.00% # attempts to use FU when none available (Count)
system.cpu.statFuBusy::MemRead                 112144     63.18%     63.18% # attempts to use FU when none available (Count)
system.cpu.statFuBusy::MemWrite                 65355     36.82%    100.00% # attempts to use FU when none available (Count)
system.cpu.statFuBusy::FloatMemRead                 0      0.00%    100.00% # attempts to use FU when none available (Count)
system.cpu.statFuBusy::FloatMemWrite                0      0.00%    100.00% # attempts to use FU when none available (Count)
system.cpu.statFuBusy::IprAccess                    0      0.00%    100.00% # attempts to use FU when none available (Count)
system.cpu.statFuBusy::InstPrefetch                 0      0.00%    100.00% # attempts to use FU when none available (Count)
system.cpu.statIssuedInstType_0::No_OpClass           11      0.00%      0.00% # Number of instructions issued per FU type, per thread (Count)
system.cpu.statIssuedInstType_0::IntAlu      31131629     68.87%     68.87% # Number of instructions issued per FU type, per thread (Count)
system.cpu.statIssuedInstType_0::IntMult        19482      0.04%     68.91% # Number of instructions issued per FU type, per thread (Count)
system.cpu.statIssuedInstType_0::IntDiv             0      0.00%     68.91% # Number of instructions issued per FU type, per thread (Count)
system.cpu.statIssuedInstType_0::FloatAdd            0      0.00%     68.91% # Number of instructions issued per FU type, per thread (Count)
system.cpu.statIssuedInstType_0::FloatCmp            0      0.00%     68.91% # Number of instructions issued per FU type, per thread (Count)
system.cpu.statIssuedInstType_0::FloatCvt            0      0.00%     68.91% # Number of instructions issued per FU type, per thread (Count)
system.cpu.statIssuedInstType_0::FloatMult            0      0.00%     68.91% # Number of instructions issued per FU type, per thread (Count)
system.cpu.statIssuedInstType_0::FloatMultAcc            0      0.00%     68.91% # Number of instructions issued per FU type, per thread (Count)
system.cpu.statIssuedInstType_0::FloatDiv            0      0.00%     68.91% # Number of instructions issued per FU type, per thread (Count)
system.cpu.statIssuedInstType_0::FloatMisc            0      0.00%     68.91% # Number of instructions issued per FU type, per thread (Count)
system.cpu.statIssuedInstType_0::FloatSqrt            0      0.00%     68.91% # Number of instructions issued per FU type, per thread (Count)
system.cpu.statIssuedInstType_0::SimdAdd            0      0.00%     68.91% # Number of instructions issued per FU type, per thread (Count)
system.cpu.statIssuedInstType_0::SimdAddAcc            0      0.00%     68.91% # Number of instructions issued per FU type, per thread (Count)
system.cpu.statIssuedInstType_0::SimdAlu            0      0.00%     68.91% # Number of instructions issued per FU type, per thread (Count)
system.cpu.statIssuedInstType_0::SimdCmp            0      0.00%     68.91% # Number of instructions issued per FU type, per thread (Count)
system.cpu.statIssuedInstType_0::SimdCvt            0      0.00%     68.91% # Number of instructions issued per FU type, per thread (Count)
system.cpu.statIssuedInstType_0::SimdMisc            0      0.00%     68.91% # Number of instructions issued per FU type, per thread (Count)
system.cpu.statIssuedInstType_0::SimdMult            0      0.00%     68.91% # Number of instructions issued per FU type, per thread (Count)
system.cpu.statIssuedInstType_0::SimdMultAcc            0      0.00%     68.91% # Number of instructions issued per FU type, per thread (Count)
system.cpu.statIssuedInstType_0::SimdShift            0      0.00%     68.91% # Number of instructions issued per FU type, per thread (Count)
system.cpu.statIssuedInstType_0::SimdShiftAcc            0      0.00%     68.91% # Number of instructions issued per FU type, per thread (Count)
system.cpu.statIssuedInstType_0::SimdDiv            0      0.00%     68.91% # Number of instructions issued per FU type, per thread (Count)
system.cpu.statIssuedInstType_0::SimdSqrt            0      0.00%     68.91% # Number of instructions issued per FU type, per thread (Count)
system.cpu.statIssuedInstType_0::SimdFloatAdd            0      0.00%     68.91% # Number of instructions issued per FU type, per thread (Count)
system.cpu.statIssuedInstType_0::SimdFloatAlu            0      0.00%     68.91% # Number of instructions issued per FU type, per thread (Count)
system.cpu.statIssuedInstType_0::SimdFloatCmp            0      0.00%     68.91% # Number of instructions issued per FU type, per thread (Count)
system.cpu.statIssuedInstType_0::SimdFloatCvt            0      0.00%     68.91% # Number of instructions issued per FU type, per thread (Count)
system.cpu.statIssuedInstType_0::SimdFloatDiv            0      0.00%     68.91% # Number of instructions issued per FU type, per thread (Count)
system.cpu.statIssuedInstType_0::SimdFloatMisc            0      0.00%     68.91% # Number of instructions issued per FU type, per thread (Count)
system.cpu.statIssuedInstType_0::SimdFloatMult            0      0.00%     68.91% # Number of instructions issued per FU type, per thread (Count)
system.cpu.statIssuedInstType_0::SimdFloatMultAcc            0      0.00%     68.91% # Number of instructions issued per FU type, per thread (Count)
system.cpu.statIssuedInstType_0::SimdFloatSqrt            0      0.00%     68.91% # Number of instructions issued per FU type, per thread (Count)
system.cpu.statIssuedInstType_0::SimdReduceAdd            0      0.00%     68.91% # Number of instructions issued per FU type, per thread (Count)
system.cpu.statIssuedInstType_0::SimdReduceAlu            0      0.00%     68.91% # Number of instructions issued per FU type, per thread (Count)
system.cpu.statIssuedInstType_0::SimdReduceCmp            0      0.00%     68.91% # Number of instructions issued per FU type, per thread (Count)
system.cpu.statIssuedInstType_0::SimdFloatReduceAdd            0      0.00%     68.91% # Number of instructions issued per FU type, per thread (Count)
system.cpu.statIssuedInstType_0::SimdFloatReduceCmp            0      0.00%     68.91% # Number of instructions issued per FU type, per thread (Count)
system.cpu.statIssuedInstType_0::SimdAes            0      0.00%     68.91% # Number of instructions issued per FU type, per thread (Count)
system.cpu.statIssuedInstType_0::SimdAesMix            0      0.00%     68.91% # Number of instructions issued per FU type, per thread (Count)
system.cpu.statIssuedInstType_0::SimdSha1Hash            0      0.00%     68.91% # Number of instructions issued per FU type, per thread (Count)
system.cpu.statIssuedInstType_0::SimdSha1Hash2            0      0.00%     68.91% # Number of instructions issued per FU type, per thread (Count)
system.cpu.statIssuedInstType_0::SimdSha256Hash            0      0.00%     68.91% # Number of instructions issued per FU type, per thread (Count)
system.cpu.statIssuedInstType_0::SimdSha256Hash2            0      0.00%     68.91% # Number of instructions issued per FU type, per thread (Count)
system.cpu.statIssuedInstType_0::SimdShaSigma2            0      0.00%     68.91% # Number of instructions issued per FU type, per thread (Count)
system.cpu.statIssuedInstType_0::SimdShaSigma3            0      0.00%     68.91% # Number of instructions issued per FU type, per thread (Count)
system.cpu.statIssuedInstType_0::SimdPredAlu            0      0.00%     68.91% # Number of instructions issued per FU type, per thread (Count)
system.cpu.statIssuedInstType_0::MemRead      9175683     20.30%     89.21% # Number of instructions issued per FU type, per thread (Count)
system.cpu.statIssuedInstType_0::MemWrite      4879517     10.79%    100.00% # Number of instructions issued per FU type, per thread (Count)
system.cpu.statIssuedInstType_0::FloatMemRead            0      0.00%    100.00% # Number of instructions issued per FU type, per thread (Count)
system.cpu.statIssuedInstType_0::FloatMemWrite            0      0.00%    100.00% # Number of instructions issued per FU type, per thread (Count)
system.cpu.statIssuedInstType_0::IprAccess            0      0.00%    100.00% # Number of instructions issued per FU type, per thread (Count)
system.cpu.statIssuedInstType_0::InstPrefetch            0      0.00%    100.00% # Number of instructions issued per FU type, per thread (Count)
system.cpu.statIssuedInstType_0::total       45206322                       # Number of instructions issued per FU type, per thread (Count)
system.cpu.issueRate                         2.210599                       # Inst issue rate ((Count/Cycle))
system.cpu.fuBusy                              177499                       # FU busy when requested (Count)
system.cpu.fuBusyRate                        0.003926                       # FU busy rate (busy events/executed inst) ((Count/Count))
system.cpu.intInstQueueReads                110991723                       # Number of integer instruction queue reads (Count)
system.cpu.intInstQueueWrites                47330160                       # Number of integer instruction queue writes (Count)
system.cpu.intInstQueueWakeupAccesses        44955751                       # Number of integer instruction queue wakeup accesses (Count)
system.cpu.fpInstQueueReads                         0                       # Number of floating instruction queue reads (Count)
system.cpu.fpInstQueueWrites                        0                       # Number of floating instruction queue writes (Count)
system.cpu.fpInstQueueWakeupAccesses                0                       # Number of floating instruction queue wakeup accesses (Count)
system.cpu.vecInstQueueReads                        0                       # Number of vector instruction queue reads (Count)
system.cpu.vecInstQueueWrites                       0                       # Number of vector instruction queue writes (Count)
system.cpu.vecInstQueueWakeupAccesses               0                       # Number of vector instruction queue wakeup accesses (Count)
system.cpu.intAluAccesses                    45383810                       # Number of integer alu accesses (Count)
system.cpu.fpAluAccesses                            0                       # Number of floating point alu accesses (Count)
system.cpu.vecAluAccesses                           0                       # Number of vector alu accesses (Count)
system.cpu.idleCycles                               0                       # Number of cycles IEW is idle (Cycle)
system.cpu.squashCycles                         87681                       # Number of cycles IEW is squashing (Cycle)
system.cpu.blockCycles                         179121                       # Number of cycles IEW is blocking (Cycle)
system.cpu.unblockCycles                         2835                       # Number of cycles IEW is unblocking (Cycle)
system.cpu.dispatchedInsts                   45853766                       # Number of instructions dispatched to IQ (Count)
system.cpu.dispSquashedInsts                   125687                       # Number of squashed instructions skipped by dispatch (Count)
system.cpu.dispLoadInsts                      9288646                       # Number of dispatched load instructions (Count)
system.cpu.dispStoreInsts                     4971613                       # Number of dispatched store instructions (Count)
system.cpu.dispNonSpecInsts                     21731                       # Number of dispatched non-speculative instructions (Count)
system.cpu.iqFullEvents                          2091                       # Number of times the IQ has become full, causing a stall (Count)
system.cpu.lsqFullEvents                          230                       # Number of times the LSQ has become full, causing a stall (Count)
system.cpu.memOrderViolationEvents                611                       # Number of memory order violations (Count)
system.cpu.predictedTakenIncorrect              79077                       # Number of branches that were predicted taken incorrectly (Count)
system.cpu.predictedNotTakenIncorrect           10196                       # Number of branches that were predicted not taken incorrectly (Count)
system.cpu.branchMispredicts                    89273                       # Number of branch mispredicts detected at execute (Count)
system.cpu.numInsts                          45130464                       # Number of executed instructions (Count)
system.cpu.numLoadInsts                       9157627                       # Number of load instructions executed (Count)
system.cpu.numSquashedInsts                     75858                       # Number of squashed instructions skipped in execute (Count)
system.cpu.numSwp                                   0                       # Number of swp insts executed (Count)
system.cpu.numNop                                   0                       # Number of nop insts executed (Count)
system.cpu.numRefs                           14022981                       # Number of memory reference insts executed (Count)
system.cpu.numBranches                       10207695                       # Number of branches executed (Count)
system.cpu.numStoreInsts                      4865354                       # Number of stores executed (Count)
system.cpu.numRate                           2.206889                       # Inst execution rate ((Count/Cycle))
system.cpu.instsToCommit                     45030159                       # Cumulative count of insts sent to commit (Count)
system.cpu.writebackCount                    44955751                       # Cumulative count of insts written-back (Count)
system.cpu.producerInst                      23687048                       # Number of instructions producing a value (Count)
system.cpu.consumerInst                      37721803                       # Number of instructions consuming a value (Count)
system.cpu.wbRate                            2.198346                       # Insts written-back per cycle ((Count/Cycle))
system.cpu.wbFanout                          0.627941                       # Average fanout of values written-back ((Count/Count))
system.cpu.timesIdled                             495                       # Number of times that the entire CPU went into an idle state and unscheduled itself (Count)
system.cpu.idleCycles                           49082                       # Total number of cycles that the CPU has spent unscheduled due to idling (Cycle)
system.cpu.committedInsts                    41841366                       # Number of Instructions Simulated (Count)
system.cpu.committedOps                      44377976                       # Number of Ops (including micro ops) Simulated (Count)
system.cpu.cpi                               0.488746                       # CPI: Cycles Per Instruction ((Cycle/Count))
system.cpu.totalCpi                          0.488746                       # CPI: Total CPI of All Threads ((Cycle/Count))
system.cpu.ipc                               2.046052                       # IPC: Instructions Per Cycle ((Count/Cycle))
system.cpu.totalIpc                          2.046052                       # IPC: Total IPC of All Threads ((Count/Cycle))
system.cpu.intRegfileReads                   46100165                       # Number of integer regfile reads (Count)
system.cpu.intRegfileWrites                  20852187                       # Number of integer regfile writes (Count)
system.cpu.vecRegfileReads                         16                       # number of vector regfile reads (Count)
system.cpu.ccRegfileReads                   162528749                       # number of cc regfile reads (Count)
system.cpu.ccRegfileWrites                   28895290                       # number of cc regfile writes (Count)
system.cpu.miscRegfileReads                  83797085                       # number of misc regfile reads (Count)
system.cpu.miscRegfileWrites                    83841                       # number of misc regfile writes (Count)
system.cpu.MemDepUnit__0.insertedLoads        9288646                       # Number of loads inserted to the mem dependence unit. (Count)
system.cpu.MemDepUnit__0.insertedStores       4971613                       # Number of stores inserted to the mem dependence unit. (Count)
system.cpu.MemDepUnit__0.conflictingLoads      1750749                       # Number of conflicting loads. (Count)
system.cpu.MemDepUnit__0.conflictingStores      1365726                       # Number of conflicting stores. (Count)
system.cpu.MemDepUnit__1.insertedLoads              0                       # Number of loads inserted to the mem dependence unit. (Count)
system.cpu.MemDepUnit__1.insertedStores             0                       # Number of stores inserted to the mem dependence unit. (Count)
system.cpu.MemDepUnit__1.conflictingLoads            0                       # Number of conflicting loads. (Count)
system.cpu.MemDepUnit__1.conflictingStores            0                       # Number of conflicting stores. (Count)
system.cpu.MemDepUnit__2.insertedLoads              0                       # Number of loads inserted to the mem dependence unit. (Count)
system.cpu.MemDepUnit__2.insertedStores             0                       # Number of stores inserted to the mem dependence unit. (Count)
system.cpu.MemDepUnit__2.conflictingLoads            0                       # Number of conflicting loads. (Count)
system.cpu.MemDepUnit__2.conflictingStores            0                       # Number of conflicting stores. (Count)
system.cpu.MemDepUnit__3.insertedLoads              0                       # Number of loads inserted to the mem dependence unit. (Count)
system.cpu.MemDepUnit__3.insertedStores             0                       # Number of stores inserted to the mem dependence unit. (Count)
system.cpu.MemDepUnit__3.conflictingLoads            0                       # Number of conflicting loads. (Count)
system.cpu.MemDepUnit__3.conflictingStores            0                       # Number of conflicting stores. (Count)
system.cpu.branchPred.lookups                10652467                       # Number of BP lookups (Count)
system.cpu.branchPred.condPredicted           9809554                       # Number of conditional branches predicted (Count)
system.cpu.branchPred.condIncorrect             87322                       # Number of conditional branches incorrect (Count)
system.cpu.branchPred.BTBLookups              5886999                       # Number of BTB lookups (Count)
system.cpu.branchPred.BTBHits                 5885028                       # Number of BTB hits (Count)
system.cpu.branchPred.BTBHitRatio            0.999665                       # BTB Hit Ratio (Ratio)
system.cpu.branchPred.RASUsed                  255141                       # Number of times the RAS was used to get a target. (Count)
system.cpu.branchPred.RASIncorrect              31760                       # Number of incorrect RAS predictions. (Count)
system.cpu.branchPred.indirectLookups          172254                       # Number of indirect predictor lookups. (Count)
system.cpu.branchPred.indirectHits             171538                       # Number of indirect target hits. (Count)
system.cpu.branchPred.indirectMisses              716                       # Number of indirect misses. (Count)
system.cpu.branchPred.indirectMispredicted          276                       # Number of mispredicted indirect branches. (Count)
system.cpu.commit.commitSquashedInsts         1475734                       # The number of squashed insts skipped by commit (Count)
system.cpu.commit.commitNonSpecStalls           42159                       # The number of times commit has been forced to stall to communicate backwards (Count)
system.cpu.commit.branchMispredicts             86900                       # The number of times a branch was mispredicted (Count)
system.cpu.commit.numCommittedDist::samples     20168138                       # Number of insts commited each cycle
system.cpu.commit.numCommittedDist::mean     2.200400                       # Number of insts commited each cycle
system.cpu.commit.numCommittedDist::stdev     2.414664                       # Number of insts commited each cycle
system.cpu.commit.numCommittedDist::underflows            0      0.00%      0.00% # Number of insts commited each cycle
system.cpu.commit.numCommittedDist::0         4061852     20.14%     20.14% # Number of insts commited each cycle
system.cpu.commit.numCommittedDist::1         6496224     32.21%     52.35% # Number of insts commited each cycle
system.cpu.commit.numCommittedDist::2         5160346     25.59%     77.94% # Number of insts commited each cycle
system.cpu.commit.numCommittedDist::3          267514      1.33%     79.26% # Number of insts commited each cycle
system.cpu.commit.numCommittedDist::4         1453932      7.21%     86.47% # Number of insts commited each cycle
system.cpu.commit.numCommittedDist::5           95531      0.47%     86.95% # Number of insts commited each cycle
system.cpu.commit.numCommittedDist::6          250800      1.24%     88.19% # Number of insts commited each cycle
system.cpu.commit.numCommittedDist::7           95177      0.47%     88.66% # Number of insts commited each cycle
system.cpu.commit.numCommittedDist::8         2286762     11.34%    100.00% # Number of insts commited each cycle
system.cpu.commit.numCommittedDist::overflows            0      0.00%    100.00% # Number of insts commited each cycle
system.cpu.commit.numCommittedDist::min_value            0                       # Number of insts commited each cycle
system.cpu.commit.numCommittedDist::max_value            8                       # Number of insts commited each cycle
system.cpu.commit.numCommittedDist::total     20168138                       # Number of insts commited each cycle
system.cpu.commit.instsCommitted             41841366                       # Number of instructions committed (Count)
system.cpu.commit.opsCommitted               44377976                       # Number of ops (including micro ops) committed (Count)
system.cpu.commit.memRefs                    13697992                       # Number of memory references committed (Count)
system.cpu.commit.loads                       8917925                       # Number of loads committed (Count)
system.cpu.commit.amos                              0                       # Number of atomic instructions committed (Count)
system.cpu.commit.membars                       20960                       # Number of memory barriers committed (Count)
system.cpu.commit.branches                   10103134                       # Number of branches committed (Count)
system.cpu.commit.vectorInstructions                0                       # Number of committed Vector instructions. (Count)
system.cpu.commit.floating                          0                       # Number of committed floating point instructions. (Count)
system.cpu.commit.integer                    34848648                       # Number of committed integer instructions. (Count)
system.cpu.commit.functionCalls                209372                       # Number of function calls committed. (Count)
system.cpu.commit.committedInstType_0::No_OpClass            0      0.00%      0.00% # Class of committed instruction (Count)
system.cpu.commit.committedInstType_0::IntAlu     30660516     69.09%     69.09% # Class of committed instruction (Count)
system.cpu.commit.committedInstType_0::IntMult        19468      0.04%     69.13% # Class of committed instruction (Count)
system.cpu.commit.committedInstType_0::IntDiv            0      0.00%     69.13% # Class of committed instruction (Count)
system.cpu.commit.committedInstType_0::FloatAdd            0      0.00%     69.13% # Class of committed instruction (Count)
system.cpu.commit.committedInstType_0::FloatCmp            0      0.00%     69.13% # Class of committed instruction (Count)
system.cpu.commit.committedInstType_0::FloatCvt            0      0.00%     69.13% # Class of committed instruction (Count)
system.cpu.commit.committedInstType_0::FloatMult            0      0.00%     69.13% # Class of committed instruction (Count)
system.cpu.commit.committedInstType_0::FloatMultAcc            0      0.00%     69.13% # Class of committed instruction (Count)
system.cpu.commit.committedInstType_0::FloatDiv            0      0.00%     69.13% # Class of committed instruction (Count)
system.cpu.commit.committedInstType_0::FloatMisc            0      0.00%     69.13% # Class of committed instruction (Count)
system.cpu.commit.committedInstType_0::FloatSqrt            0      0.00%     69.13% # Class of committed instruction (Count)
system.cpu.commit.committedInstType_0::SimdAdd            0      0.00%     69.13% # Class of committed instruction (Count)
system.cpu.commit.committedInstType_0::SimdAddAcc            0      0.00%     69.13% # Class of committed instruction (Count)
system.cpu.commit.committedInstType_0::SimdAlu            0      0.00%     69.13% # Class of committed instruction (Count)
system.cpu.commit.committedInstType_0::SimdCmp            0      0.00%     69.13% # Class of committed instruction (Count)
system.cpu.commit.committedInstType_0::SimdCvt            0      0.00%     69.13% # Class of committed instruction (Count)
system.cpu.commit.committedInstType_0::SimdMisc            0      0.00%     69.13% # Class of committed instruction (Count)
system.cpu.commit.committedInstType_0::SimdMult            0      0.00%     69.13% # Class of committed instruction (Count)
system.cpu.commit.committedInstType_0::SimdMultAcc            0      0.00%     69.13% # Class of committed instruction (Count)
system.cpu.commit.committedInstType_0::SimdShift            0      0.00%     69.13% # Class of committed instruction (Count)
system.cpu.commit.committedInstType_0::SimdShiftAcc            0      0.00%     69.13% # Class of committed instruction (Count)
system.cpu.commit.committedInstType_0::SimdDiv            0      0.00%     69.13% # Class of committed instruction (Count)
system.cpu.commit.committedInstType_0::SimdSqrt            0      0.00%     69.13% # Class of committed instruction (Count)
system.cpu.commit.committedInstType_0::SimdFloatAdd            0      0.00%     69.13% # Class of committed instruction (Count)
system.cpu.commit.committedInstType_0::SimdFloatAlu            0      0.00%     69.13% # Class of committed instruction (Count)
system.cpu.commit.committedInstType_0::SimdFloatCmp            0      0.00%     69.13% # Class of committed instruction (Count)
system.cpu.commit.committedInstType_0::SimdFloatCvt            0      0.00%     69.13% # Class of committed instruction (Count)
system.cpu.commit.committedInstType_0::SimdFloatDiv            0      0.00%     69.13% # Class of committed instruction (Count)
system.cpu.commit.committedInstType_0::SimdFloatMisc            0      0.00%     69.13% # Class of committed instruction (Count)
system.cpu.commit.committedInstType_0::SimdFloatMult            0      0.00%     69.13% # Class of committed instruction (Count)
system.cpu.commit.committedInstType_0::SimdFloatMultAcc            0      0.00%     69.13% # Class of committed instruction (Count)
system.cpu.commit.committedInstType_0::SimdFloatSqrt            0      0.00%     69.13% # Class of committed instruction (Count)
system.cpu.commit.committedInstType_0::SimdReduceAdd            0      0.00%     69.13% # Class of committed instruction (Count)
system.cpu.commit.committedInstType_0::SimdReduceAlu            0      0.00%     69.13% # Class of committed instruction (Count)
system.cpu.commit.committedInstType_0::SimdReduceCmp            0      0.00%     69.13% # Class of committed instruction (Count)
system.cpu.commit.committedInstType_0::SimdFloatReduceAdd            0      0.00%     69.13% # Class of committed instruction (Count)
system.cpu.commit.committedInstType_0::SimdFloatReduceCmp            0      0.00%     69.13% # Class of committed instruction (Count)
system.cpu.commit.committedInstType_0::SimdAes            0      0.00%     69.13% # Class of committed instruction (Count)
system.cpu.commit.committedInstType_0::SimdAesMix            0      0.00%     69.13% # Class of committed instruction (Count)
system.cpu.commit.committedInstType_0::SimdSha1Hash            0      0.00%     69.13% # Class of committed instruction (Count)
system.cpu.commit.committedInstType_0::SimdSha1Hash2            0      0.00%     69.13% # Class of committed instruction (Count)
system.cpu.commit.committedInstType_0::SimdSha256Hash            0      0.00%     69.13% # Class of committed instruction (Count)
system.cpu.commit.committedInstType_0::SimdSha256Hash2            0      0.00%     69.13% # Class of committed instruction (Count)
system.cpu.commit.committedInstType_0::SimdShaSigma2            0      0.00%     69.13% # Class of committed instruction (Count)
system.cpu.commit.committedInstType_0::SimdShaSigma3            0      0.00%     69.13% # Class of committed instruction (Count)
system.cpu.commit.committedInstType_0::SimdPredAlu            0      0.00%     69.13% # Class of committed instruction (Count)
system.cpu.commit.committedInstType_0::MemRead      8917925     20.10%     89.23% # Class of committed instruction (Count)
system.cpu.commit.committedInstType_0::MemWrite      4780067     10.77%    100.00% # Class of committed instruction (Count)
system.cpu.commit.committedInstType_0::FloatMemRead            0      0.00%    100.00% # Class of committed instruction (Count)
system.cpu.commit.committedInstType_0::FloatMemWrite            0      0.00%    100.00% # Class of committed instruction (Count)
system.cpu.commit.committedInstType_0::IprAccess            0      0.00%    100.00% # Class of committed instruction (Count)
system.cpu.commit.committedInstType_0::InstPrefetch            0      0.00%    100.00% # Class of committed instruction (Count)
system.cpu.commit.committedInstType_0::total     44377976                       # Class of committed instruction (Count)
system.cpu.commit.commitEligibleSamples       2286762                       # number cycles where commit BW limit reached (Cycle)
system.cpu.dcache.demandHits::cpu.data       13588494                       # number of demand (read+write) hits (Count)
system.cpu.dcache.demandHits::total          13588494                       # number of demand (read+write) hits (Count)
system.cpu.dcache.overallHits::cpu.data      13588494                       # number of overall hits (Count)
system.cpu.dcache.overallHits::total         13588494                       # number of overall hits (Count)
system.cpu.dcache.demandMisses::cpu.data        80742                       # number of demand (read+write) misses (Count)
system.cpu.dcache.demandMisses::total           80742                       # number of demand (read+write) misses (Count)
system.cpu.dcache.overallMisses::cpu.data        80742                       # number of overall misses (Count)
system.cpu.dcache.overallMisses::total          80742                       # number of overall misses (Count)
system.cpu.dcache.demandMissLatency::cpu.data    935012994                       # number of demand (read+write) miss ticks (Tick)
system.cpu.dcache.demandMissLatency::total    935012994                       # number of demand (read+write) miss ticks (Tick)
system.cpu.dcache.overallMissLatency::cpu.data    935012994                       # number of overall miss ticks (Tick)
system.cpu.dcache.overallMissLatency::total    935012994                       # number of overall miss ticks (Tick)
system.cpu.dcache.demandAccesses::cpu.data     13669236                       # number of demand (read+write) accesses (Count)
system.cpu.dcache.demandAccesses::total      13669236                       # number of demand (read+write) accesses (Count)
system.cpu.dcache.overallAccesses::cpu.data     13669236                       # number of overall (read+write) accesses (Count)
system.cpu.dcache.overallAccesses::total     13669236                       # number of overall (read+write) accesses (Count)
system.cpu.dcache.demandMissRate::cpu.data     0.005907                       # miss rate for demand accesses (Ratio)
system.cpu.dcache.demandMissRate::total      0.005907                       # miss rate for demand accesses (Ratio)
system.cpu.dcache.overallMissRate::cpu.data     0.005907                       # miss rate for overall accesses (Ratio)
system.cpu.dcache.overallMissRate::total     0.005907                       # miss rate for overall accesses (Ratio)
system.cpu.dcache.demandAvgMissLatency::cpu.data 11580.255555                       # average overall miss latency ((Cycle/Count))
system.cpu.dcache.demandAvgMissLatency::total 11580.255555                       # average overall miss latency ((Cycle/Count))
system.cpu.dcache.overallAvgMissLatency::cpu.data 11580.255555                       # average overall miss latency ((Cycle/Count))
system.cpu.dcache.overallAvgMissLatency::total 11580.255555                       # average overall miss latency ((Cycle/Count))
system.cpu.dcache.blockedCycles::no_mshrs         1338                       # number of cycles access was blocked (Cycle)
system.cpu.dcache.blockedCycles::no_targets            0                       # number of cycles access was blocked (Cycle)
system.cpu.dcache.blockedCauses::no_mshrs           18                       # number of times access was blocked (Count)
system.cpu.dcache.blockedCauses::no_targets            0                       # number of times access was blocked (Count)
system.cpu.dcache.avgBlocked::no_mshrs      74.333333                       # average number of cycles each access was blocked ((Cycle/Count))
system.cpu.dcache.avgBlocked::no_targets          nan                       # average number of cycles each access was blocked ((Cycle/Count))
system.cpu.dcache.writebacks::writebacks        19250                       # number of writebacks (Count)
system.cpu.dcache.writebacks::total             19250                       # number of writebacks (Count)
system.cpu.dcache.demandMshrHits::cpu.data        57456                       # number of demand (read+write) MSHR hits (Count)
system.cpu.dcache.demandMshrHits::total         57456                       # number of demand (read+write) MSHR hits (Count)
system.cpu.dcache.overallMshrHits::cpu.data        57456                       # number of overall MSHR hits (Count)
system.cpu.dcache.overallMshrHits::total        57456                       # number of overall MSHR hits (Count)
system.cpu.dcache.demandMshrMisses::cpu.data        23286                       # number of demand (read+write) MSHR misses (Count)
system.cpu.dcache.demandMshrMisses::total        23286                       # number of demand (read+write) MSHR misses (Count)
system.cpu.dcache.overallMshrMisses::cpu.data        23286                       # number of overall MSHR misses (Count)
system.cpu.dcache.overallMshrMisses::total        23286                       # number of overall MSHR misses (Count)
system.cpu.dcache.demandMshrMissLatency::cpu.data    362877499                       # number of demand (read+write) MSHR miss ticks (Tick)
system.cpu.dcache.demandMshrMissLatency::total    362877499                       # number of demand (read+write) MSHR miss ticks (Tick)
system.cpu.dcache.overallMshrMissLatency::cpu.data    362877499                       # number of overall MSHR miss ticks (Tick)
system.cpu.dcache.overallMshrMissLatency::total    362877499                       # number of overall MSHR miss ticks (Tick)
system.cpu.dcache.demandMshrMissRate::cpu.data     0.001704                       # mshr miss ratio for demand accesses (Ratio)
system.cpu.dcache.demandMshrMissRate::total     0.001704                       # mshr miss ratio for demand accesses (Ratio)
system.cpu.dcache.overallMshrMissRate::cpu.data     0.001704                       # mshr miss ratio for overall accesses (Ratio)
system.cpu.dcache.overallMshrMissRate::total     0.001704                       # mshr miss ratio for overall accesses (Ratio)
system.cpu.dcache.demandAvgMshrMissLatency::cpu.data 15583.505067                       # average overall mshr miss latency ((Cycle/Count))
system.cpu.dcache.demandAvgMshrMissLatency::total 15583.505067                       # average overall mshr miss latency ((Cycle/Count))
system.cpu.dcache.overallAvgMshrMissLatency::cpu.data 15583.505067                       # average overall mshr miss latency ((Cycle/Count))
system.cpu.dcache.overallAvgMshrMissLatency::total 15583.505067                       # average overall mshr miss latency ((Cycle/Count))
system.cpu.dcache.replacements                  22410                       # number of replacements (Count)
system.cpu.dcache.LoadLockedReq.hits::cpu.data        21126                       # number of LoadLockedReq hits (Count)
system.cpu.dcache.LoadLockedReq.hits::total        21126                       # number of LoadLockedReq hits (Count)
system.cpu.dcache.LoadLockedReq.misses::cpu.data            3                       # number of LoadLockedReq misses (Count)
system.cpu.dcache.LoadLockedReq.misses::total            3                       # number of LoadLockedReq misses (Count)
system.cpu.dcache.LoadLockedReq.missLatency::cpu.data        93500                       # number of LoadLockedReq miss ticks (Tick)
system.cpu.dcache.LoadLockedReq.missLatency::total        93500                       # number of LoadLockedReq miss ticks (Tick)
system.cpu.dcache.LoadLockedReq.accesses::cpu.data        21129                       # number of LoadLockedReq accesses(hits+misses) (Count)
system.cpu.dcache.LoadLockedReq.accesses::total        21129                       # number of LoadLockedReq accesses(hits+misses) (Count)
system.cpu.dcache.LoadLockedReq.missRate::cpu.data     0.000142                       # miss rate for LoadLockedReq accesses (Ratio)
system.cpu.dcache.LoadLockedReq.missRate::total     0.000142                       # miss rate for LoadLockedReq accesses (Ratio)
system.cpu.dcache.LoadLockedReq.avgMissLatency::cpu.data 31166.666667                       # average LoadLockedReq miss latency ((Tick/Count))
system.cpu.dcache.LoadLockedReq.avgMissLatency::total 31166.666667                       # average LoadLockedReq miss latency ((Tick/Count))
system.cpu.dcache.LoadLockedReq.mshrHits::cpu.data            3                       # number of LoadLockedReq MSHR hits (Count)
system.cpu.dcache.LoadLockedReq.mshrHits::total            3                       # number of LoadLockedReq MSHR hits (Count)
system.cpu.dcache.ReadReq.hits::cpu.data      8868983                       # number of ReadReq hits (Count)
system.cpu.dcache.ReadReq.hits::total         8868983                       # number of ReadReq hits (Count)
system.cpu.dcache.ReadReq.misses::cpu.data        78085                       # number of ReadReq misses (Count)
system.cpu.dcache.ReadReq.misses::total         78085                       # number of ReadReq misses (Count)
system.cpu.dcache.ReadReq.missLatency::cpu.data    792215000                       # number of ReadReq miss ticks (Tick)
system.cpu.dcache.ReadReq.missLatency::total    792215000                       # number of ReadReq miss ticks (Tick)
system.cpu.dcache.ReadReq.accesses::cpu.data      8947068                       # number of ReadReq accesses(hits+misses) (Count)
system.cpu.dcache.ReadReq.accesses::total      8947068                       # number of ReadReq accesses(hits+misses) (Count)
system.cpu.dcache.ReadReq.missRate::cpu.data     0.008727                       # miss rate for ReadReq accesses (Ratio)
system.cpu.dcache.ReadReq.missRate::total     0.008727                       # miss rate for ReadReq accesses (Ratio)
system.cpu.dcache.ReadReq.avgMissLatency::cpu.data 10145.546520                       # average ReadReq miss latency ((Tick/Count))
system.cpu.dcache.ReadReq.avgMissLatency::total 10145.546520                       # average ReadReq miss latency ((Tick/Count))
system.cpu.dcache.ReadReq.mshrHits::cpu.data        55934                       # number of ReadReq MSHR hits (Count)
system.cpu.dcache.ReadReq.mshrHits::total        55934                       # number of ReadReq MSHR hits (Count)
system.cpu.dcache.ReadReq.mshrMisses::cpu.data        22151                       # number of ReadReq MSHR misses (Count)
system.cpu.dcache.ReadReq.mshrMisses::total        22151                       # number of ReadReq MSHR misses (Count)
system.cpu.dcache.ReadReq.mshrMissLatency::cpu.data    289945500                       # number of ReadReq MSHR miss ticks (Tick)
system.cpu.dcache.ReadReq.mshrMissLatency::total    289945500                       # number of ReadReq MSHR miss ticks (Tick)
system.cpu.dcache.ReadReq.mshrMissRate::cpu.data     0.002476                       # mshr miss rate for ReadReq accesses (Ratio)
system.cpu.dcache.ReadReq.mshrMissRate::total     0.002476                       # mshr miss rate for ReadReq accesses (Ratio)
system.cpu.dcache.ReadReq.avgMshrMissLatency::cpu.data 13089.499345                       # average ReadReq mshr miss latency ((Tick/Count))
system.cpu.dcache.ReadReq.avgMshrMissLatency::total 13089.499345                       # average ReadReq mshr miss latency ((Tick/Count))
system.cpu.dcache.StoreCondReq.hits::cpu.data        20960                       # number of StoreCondReq hits (Count)
system.cpu.dcache.StoreCondReq.hits::total        20960                       # number of StoreCondReq hits (Count)
system.cpu.dcache.StoreCondReq.accesses::cpu.data        20960                       # number of StoreCondReq accesses(hits+misses) (Count)
system.cpu.dcache.StoreCondReq.accesses::total        20960                       # number of StoreCondReq accesses(hits+misses) (Count)
system.cpu.dcache.WriteReq.hits::cpu.data      4719511                       # number of WriteReq hits (Count)
system.cpu.dcache.WriteReq.hits::total        4719511                       # number of WriteReq hits (Count)
system.cpu.dcache.WriteReq.misses::cpu.data         2657                       # number of WriteReq misses (Count)
system.cpu.dcache.WriteReq.misses::total         2657                       # number of WriteReq misses (Count)
system.cpu.dcache.WriteReq.missLatency::cpu.data    142797994                       # number of WriteReq miss ticks (Tick)
system.cpu.dcache.WriteReq.missLatency::total    142797994                       # number of WriteReq miss ticks (Tick)
system.cpu.dcache.WriteReq.accesses::cpu.data      4722168                       # number of WriteReq accesses(hits+misses) (Count)
system.cpu.dcache.WriteReq.accesses::total      4722168                       # number of WriteReq accesses(hits+misses) (Count)
system.cpu.dcache.WriteReq.missRate::cpu.data     0.000563                       # miss rate for WriteReq accesses (Ratio)
system.cpu.dcache.WriteReq.missRate::total     0.000563                       # miss rate for WriteReq accesses (Ratio)
system.cpu.dcache.WriteReq.avgMissLatency::cpu.data 53744.070004                       # average WriteReq miss latency ((Tick/Count))
system.cpu.dcache.WriteReq.avgMissLatency::total 53744.070004                       # average WriteReq miss latency ((Tick/Count))
system.cpu.dcache.WriteReq.mshrHits::cpu.data         1522                       # number of WriteReq MSHR hits (Count)
system.cpu.dcache.WriteReq.mshrHits::total         1522                       # number of WriteReq MSHR hits (Count)
system.cpu.dcache.WriteReq.mshrMisses::cpu.data         1135                       # number of WriteReq MSHR misses (Count)
system.cpu.dcache.WriteReq.mshrMisses::total         1135                       # number of WriteReq MSHR misses (Count)
system.cpu.dcache.WriteReq.mshrMissLatency::cpu.data     72931999                       # number of WriteReq MSHR miss ticks (Tick)
system.cpu.dcache.WriteReq.mshrMissLatency::total     72931999                       # number of WriteReq MSHR miss ticks (Tick)
system.cpu.dcache.WriteReq.mshrMissRate::cpu.data     0.000240                       # mshr miss rate for WriteReq accesses (Ratio)
system.cpu.dcache.WriteReq.mshrMissRate::total     0.000240                       # mshr miss rate for WriteReq accesses (Ratio)
system.cpu.dcache.WriteReq.avgMshrMissLatency::cpu.data 64257.267841                       # average WriteReq mshr miss latency ((Tick/Count))
system.cpu.dcache.WriteReq.avgMshrMissLatency::total 64257.267841                       # average WriteReq mshr miss latency ((Tick/Count))
system.cpu.dcache.power_state.pwrStateResidencyTicks::UNDEFINED  10224903500                       # Cumulative time (in ticks) in various power states (Tick)
system.cpu.dcache.tags.tagsInUse           824.862656                       # Average ticks per tags in use ((Tick/Count))
system.cpu.dcache.tags.totalRefs             13653866                       # Total number of references to valid blocks. (Count)
system.cpu.dcache.tags.sampledRefs              23286                       # Sample count of references to valid blocks. (Count)
system.cpu.dcache.tags.avgRefs             586.355149                       # Average number of references to valid blocks. ((Count/Count))
system.cpu.dcache.tags.warmupTick              176500                       # The tick when the warmup percentage was hit. (Tick)
system.cpu.dcache.tags.occupancies::cpu.data   824.862656                       # Average occupied blocks per tick, per requestor ((Count/Tick))
system.cpu.dcache.tags.avgOccs::cpu.data     0.805530                       # Average percentage of cache occupancy ((Ratio/Tick))
system.cpu.dcache.tags.avgOccs::total        0.805530                       # Average percentage of cache occupancy ((Ratio/Tick))
system.cpu.dcache.tags.occupanciesTaskId::1024          876                       # Occupied blocks per task id (Count)
system.cpu.dcache.tags.ageTaskId_1024::0           32                       # Occupied blocks per task id, per block age (Count)
system.cpu.dcache.tags.ageTaskId_1024::1           67                       # Occupied blocks per task id, per block age (Count)
system.cpu.dcache.tags.ageTaskId_1024::2           71                       # Occupied blocks per task id, per block age (Count)
system.cpu.dcache.tags.ageTaskId_1024::3          593                       # Occupied blocks per task id, per block age (Count)
system.cpu.dcache.tags.ageTaskId_1024::4          113                       # Occupied blocks per task id, per block age (Count)
system.cpu.dcache.tags.ratioOccsTaskId::1024     0.855469                       # Ratio of occupied blocks and all blocks, per task id (Ratio)
system.cpu.dcache.tags.tagAccesses           27445936                       # Number of tag accesses (Count)
system.cpu.dcache.tags.dataAccesses          27445936                       # Number of data accesses (Count)
system.cpu.dcache.tags.power_state.pwrStateResidencyTicks::UNDEFINED  10224903500                       # Cumulative time (in ticks) in various power states (Tick)
system.cpu.decode.idleCycles                  8641223                       # Number of cycles decode is idle (Cycle)
system.cpu.decode.blockedCycles                812867                       # Number of cycles decode is blocked (Cycle)
system.cpu.decode.runCycles                  10768355                       # Number of cycles decode is running (Cycle)
system.cpu.decode.unblockCycles                 90600                       # Number of cycles decode is unblocking (Cycle)
system.cpu.decode.squashCycles                  87681                       # Number of cycles decode is squashing (Cycle)
system.cpu.decode.branchResolved              5819304                       # Number of times decode resolved a branch (Count)
system.cpu.decode.branchMispred                   443                       # Number of times decode detected a branch misprediction (Count)
system.cpu.decode.decodedInsts               46813182                       # Number of instructions handled by decode (Count)
system.cpu.decode.squashedInsts                  1681                       # Number of squashed instructions handled by decode (Count)
system.cpu.fetch.icacheStallCycles            8807520                       # Number of cycles fetch is stalled on an Icache miss (Cycle)
system.cpu.fetch.insts                       44568597                       # Number of instructions fetch has processed (Count)
system.cpu.fetch.branches                    10652467                       # Number of branches that fetch encountered (Count)
system.cpu.fetch.predictedBranches            6311707                       # Number of branches that fetch has predicted taken (Count)
system.cpu.fetch.cycles                      11504952                       # Number of cycles fetch has run and was not squashing or blocked (Cycle)
system.cpu.fetch.squashCycles                  176220                       # Number of cycles fetch has spent squashing (Cycle)
system.cpu.fetch.miscStallCycles                   13                       # Number of cycles fetch has spent waiting on interrupts, or bad addresses, or out of MSHRs (Cycle)
system.cpu.fetch.pendingTrapStallCycles            82                       # Number of stall cycles due to pending traps (Cycle)
system.cpu.fetch.icacheWaitRetryStallCycles           49                       # Number of stall cycles due to full MSHR (Cycle)
system.cpu.fetch.cacheLines                   8772068                       # Number of cache lines fetched (Count)
system.cpu.fetch.icacheSquashes                 57507                       # Number of outstanding Icache misses that were squashed (Count)
system.cpu.fetch.nisnDist::samples           20400726                       # Number of instructions fetched each cycle (Total)
system.cpu.fetch.nisnDist::mean              2.330434                       # Number of instructions fetched each cycle (Total)
system.cpu.fetch.nisnDist::stdev             2.800593                       # Number of instructions fetched each cycle (Total)
system.cpu.fetch.nisnDist::underflows               0      0.00%      0.00% # Number of instructions fetched each cycle (Total)
system.cpu.fetch.nisnDist::0                  9331468     45.74%     45.74% # Number of instructions fetched each cycle (Total)
system.cpu.fetch.nisnDist::1                  2159039     10.58%     56.32% # Number of instructions fetched each cycle (Total)
system.cpu.fetch.nisnDist::2                   423587      2.08%     58.40% # Number of instructions fetched each cycle (Total)
system.cpu.fetch.nisnDist::3                  2081538     10.20%     68.60% # Number of instructions fetched each cycle (Total)
system.cpu.fetch.nisnDist::4                  1805866      8.85%     77.46% # Number of instructions fetched each cycle (Total)
system.cpu.fetch.nisnDist::5                  1747898      8.57%     86.02% # Number of instructions fetched each cycle (Total)
system.cpu.fetch.nisnDist::6                   184397      0.90%     86.93% # Number of instructions fetched each cycle (Total)
system.cpu.fetch.nisnDist::7                   113088      0.55%     87.48% # Number of instructions fetched each cycle (Total)
system.cpu.fetch.nisnDist::8                  2553845     12.52%    100.00% # Number of instructions fetched each cycle (Total)
system.cpu.fetch.nisnDist::overflows                0      0.00%    100.00% # Number of instructions fetched each cycle (Total)
system.cpu.fetch.nisnDist::min_value                0                       # Number of instructions fetched each cycle (Total)
system.cpu.fetch.nisnDist::max_value                8                       # Number of instructions fetched each cycle (Total)
system.cpu.fetch.nisnDist::total             20400726                       # Number of instructions fetched each cycle (Total)
system.cpu.fetch.branchRate                  0.520908                       # Number of branch fetches per cycle (Ratio)
system.cpu.fetch.rate                        2.179414                       # Number of inst fetches per cycle ((Count/Cycle))
system.cpu.icache.demandHits::cpu.inst        8770919                       # number of demand (read+write) hits (Count)
system.cpu.icache.demandHits::total           8770919                       # number of demand (read+write) hits (Count)
system.cpu.icache.overallHits::cpu.inst       8770919                       # number of overall hits (Count)
system.cpu.icache.overallHits::total          8770919                       # number of overall hits (Count)
system.cpu.icache.demandMisses::cpu.inst         1149                       # number of demand (read+write) misses (Count)
system.cpu.icache.demandMisses::total            1149                       # number of demand (read+write) misses (Count)
system.cpu.icache.overallMisses::cpu.inst         1149                       # number of overall misses (Count)
system.cpu.icache.overallMisses::total           1149                       # number of overall misses (Count)
system.cpu.icache.demandMissLatency::cpu.inst     71487500                       # number of demand (read+write) miss ticks (Tick)
system.cpu.icache.demandMissLatency::total     71487500                       # number of demand (read+write) miss ticks (Tick)
system.cpu.icache.overallMissLatency::cpu.inst     71487500                       # number of overall miss ticks (Tick)
system.cpu.icache.overallMissLatency::total     71487500                       # number of overall miss ticks (Tick)
system.cpu.icache.demandAccesses::cpu.inst      8772068                       # number of demand (read+write) accesses (Count)
system.cpu.icache.demandAccesses::total       8772068                       # number of demand (read+write) accesses (Count)
system.cpu.icache.overallAccesses::cpu.inst      8772068                       # number of overall (read+write) accesses (Count)
system.cpu.icache.overallAccesses::total      8772068                       # number of overall (read+write) accesses (Count)
system.cpu.icache.demandMissRate::cpu.inst     0.000131                       # miss rate for demand accesses (Ratio)
system.cpu.icache.demandMissRate::total      0.000131                       # miss rate for demand accesses (Ratio)
system.cpu.icache.overallMissRate::cpu.inst     0.000131                       # miss rate for overall accesses (Ratio)
system.cpu.icache.overallMissRate::total     0.000131                       # miss rate for overall accesses (Ratio)
system.cpu.icache.demandAvgMissLatency::cpu.inst 62217.145344                       # average overall miss latency ((Cycle/Count))
system.cpu.icache.demandAvgMissLatency::total 62217.145344                       # average overall miss latency ((Cycle/Count))
system.cpu.icache.overallAvgMissLatency::cpu.inst 62217.145344                       # average overall miss latency ((Cycle/Count))
system.cpu.icache.overallAvgMissLatency::total 62217.145344                       # average overall miss latency ((Cycle/Count))
system.cpu.icache.blockedCycles::no_mshrs          353                       # number of cycles access was blocked (Cycle)
system.cpu.icache.blockedCycles::no_targets            0                       # number of cycles access was blocked (Cycle)
system.cpu.icache.blockedCauses::no_mshrs            6                       # number of times access was blocked (Count)
system.cpu.icache.blockedCauses::no_targets            0                       # number of times access was blocked (Count)
system.cpu.icache.avgBlocked::no_mshrs      58.833333                       # average number of cycles each access was blocked ((Cycle/Count))
system.cpu.icache.avgBlocked::no_targets          nan                       # average number of cycles each access was blocked ((Cycle/Count))
system.cpu.icache.writebacks::writebacks          426                       # number of writebacks (Count)
system.cpu.icache.writebacks::total               426                       # number of writebacks (Count)
system.cpu.icache.demandMshrHits::cpu.inst          265                       # number of demand (read+write) MSHR hits (Count)
system.cpu.icache.demandMshrHits::total           265                       # number of demand (read+write) MSHR hits (Count)
system.cpu.icache.overallMshrHits::cpu.inst          265                       # number of overall MSHR hits (Count)
system.cpu.icache.overallMshrHits::total          265                       # number of overall MSHR hits (Count)
system.cpu.icache.demandMshrMisses::cpu.inst          884                       # number of demand (read+write) MSHR misses (Count)
system.cpu.icache.demandMshrMisses::total          884                       # number of demand (read+write) MSHR misses (Count)
system.cpu.icache.overallMshrMisses::cpu.inst          884                       # number of overall MSHR misses (Count)
system.cpu.icache.overallMshrMisses::total          884                       # number of overall MSHR misses (Count)
system.cpu.icache.demandMshrMissLatency::cpu.inst     56306000                       # number of demand (read+write) MSHR miss ticks (Tick)
system.cpu.icache.demandMshrMissLatency::total     56306000                       # number of demand (read+write) MSHR miss ticks (Tick)
system.cpu.icache.overallMshrMissLatency::cpu.inst     56306000                       # number of overall MSHR miss ticks (Tick)
system.cpu.icache.overallMshrMissLatency::total     56306000                       # number of overall MSHR miss ticks (Tick)
system.cpu.icache.demandMshrMissRate::cpu.inst     0.000101                       # mshr miss ratio for demand accesses (Ratio)
system.cpu.icache.demandMshrMissRate::total     0.000101                       # mshr miss ratio for demand accesses (Ratio)
system.cpu.icache.overallMshrMissRate::cpu.inst     0.000101                       # mshr miss ratio for overall accesses (Ratio)
system.cpu.icache.overallMshrMissRate::total     0.000101                       # mshr miss ratio for overall accesses (Ratio)
system.cpu.icache.demandAvgMshrMissLatency::cpu.inst 63694.570136                       # average overall mshr miss latency ((Cycle/Count))
system.cpu.icache.demandAvgMshrMissLatency::total 63694.570136                       # average overall mshr miss latency ((Cycle/Count))
system.cpu.icache.overallAvgMshrMissLatency::cpu.inst 63694.570136                       # average overall mshr miss latency ((Cycle/Count))
system.cpu.icache.overallAvgMshrMissLatency::total 63694.570136                       # average overall mshr miss latency ((Cycle/Count))
system.cpu.icache.replacements                    426                       # number of replacements (Count)
system.cpu.icache.ReadReq.hits::cpu.inst      8770919                       # number of ReadReq hits (Count)
system.cpu.icache.ReadReq.hits::total         8770919                       # number of ReadReq hits (Count)
system.cpu.icache.ReadReq.misses::cpu.inst         1149                       # number of ReadReq misses (Count)
system.cpu.icache.ReadReq.misses::total          1149                       # number of ReadReq misses (Count)
system.cpu.icache.ReadReq.missLatency::cpu.inst     71487500                       # number of ReadReq miss ticks (Tick)
system.cpu.icache.ReadReq.missLatency::total     71487500                       # number of ReadReq miss ticks (Tick)
system.cpu.icache.ReadReq.accesses::cpu.inst      8772068                       # number of ReadReq accesses(hits+misses) (Count)
system.cpu.icache.ReadReq.accesses::total      8772068                       # number of ReadReq accesses(hits+misses) (Count)
system.cpu.icache.ReadReq.missRate::cpu.inst     0.000131                       # miss rate for ReadReq accesses (Ratio)
system.cpu.icache.ReadReq.missRate::total     0.000131                       # miss rate for ReadReq accesses (Ratio)
system.cpu.icache.ReadReq.avgMissLatency::cpu.inst 62217.145344                       # average ReadReq miss latency ((Tick/Count))
system.cpu.icache.ReadReq.avgMissLatency::total 62217.145344                       # average ReadReq miss latency ((Tick/Count))
system.cpu.icache.ReadReq.mshrHits::cpu.inst          265                       # number of ReadReq MSHR hits (Count)
system.cpu.icache.ReadReq.mshrHits::total          265                       # number of ReadReq MSHR hits (Count)
system.cpu.icache.ReadReq.mshrMisses::cpu.inst          884                       # number of ReadReq MSHR misses (Count)
system.cpu.icache.ReadReq.mshrMisses::total          884                       # number of ReadReq MSHR misses (Count)
system.cpu.icache.ReadReq.mshrMissLatency::cpu.inst     56306000                       # number of ReadReq MSHR miss ticks (Tick)
system.cpu.icache.ReadReq.mshrMissLatency::total     56306000                       # number of ReadReq MSHR miss ticks (Tick)
system.cpu.icache.ReadReq.mshrMissRate::cpu.inst     0.000101                       # mshr miss rate for ReadReq accesses (Ratio)
system.cpu.icache.ReadReq.mshrMissRate::total     0.000101                       # mshr miss rate for ReadReq accesses (Ratio)
system.cpu.icache.ReadReq.avgMshrMissLatency::cpu.inst 63694.570136                       # average ReadReq mshr miss latency ((Tick/Count))
system.cpu.icache.ReadReq.avgMshrMissLatency::total 63694.570136                       # average ReadReq mshr miss latency ((Tick/Count))
system.cpu.icache.power_state.pwrStateResidencyTicks::UNDEFINED  10224903500                       # Cumulative time (in ticks) in various power states (Tick)
system.cpu.icache.tags.tagsInUse           429.517090                       # Average ticks per tags in use ((Tick/Count))
system.cpu.icache.tags.totalRefs              8771803                       # Total number of references to valid blocks. (Count)
system.cpu.icache.tags.sampledRefs                884                       # Sample count of references to valid blocks. (Count)
system.cpu.icache.tags.avgRefs            9922.854072                       # Average number of references to valid blocks. ((Count/Count))
system.cpu.icache.tags.warmupTick               87500                       # The tick when the warmup percentage was hit. (Tick)
system.cpu.icache.tags.occupancies::cpu.inst   429.517090                       # Average occupied blocks per tick, per requestor ((Count/Tick))
system.cpu.icache.tags.avgOccs::cpu.inst     0.838901                       # Average percentage of cache occupancy ((Ratio/Tick))
system.cpu.icache.tags.avgOccs::total        0.838901                       # Average percentage of cache occupancy ((Ratio/Tick))
system.cpu.icache.tags.occupanciesTaskId::1024          458                       # Occupied blocks per task id (Count)
system.cpu.icache.tags.ageTaskId_1024::0           71                       # Occupied blocks per task id, per block age (Count)
system.cpu.icache.tags.ageTaskId_1024::2            1                       # Occupied blocks per task id, per block age (Count)
system.cpu.icache.tags.ageTaskId_1024::3          169                       # Occupied blocks per task id, per block age (Count)
system.cpu.icache.tags.ageTaskId_1024::4          217                       # Occupied blocks per task id, per block age (Count)
system.cpu.icache.tags.ratioOccsTaskId::1024     0.894531                       # Ratio of occupied blocks and all blocks, per task id (Ratio)
system.cpu.icache.tags.tagAccesses           17545020                       # Number of tag accesses (Count)
system.cpu.icache.tags.dataAccesses          17545020                       # Number of data accesses (Count)
system.cpu.icache.tags.power_state.pwrStateResidencyTicks::UNDEFINED  10224903500                       # Cumulative time (in ticks) in various power states (Tick)
system.cpu.lsq0.forwLoads                      148700                       # Number of loads that had data forwarded from stores (Count)
system.cpu.lsq0.squashedLoads                  370721                       # Number of loads squashed (Count)
system.cpu.lsq0.ignoredResponses                 1221                       # Number of memory responses ignored because the instruction is squashed (Count)
system.cpu.lsq0.memOrderViolation                 611                       # Number of memory ordering violations (Count)
system.cpu.lsq0.squashedStores                 191546                       # Number of stores squashed (Count)
system.cpu.lsq0.rescheduledLoads                45182                       # Number of loads that were rescheduled (Count)
system.cpu.lsq0.blockedByCache                     16                       # Number of times an access to memory failed due to the cache being blocked (Count)
system.cpu.mmu.dtb.instHits                         0                       # ITB inst hits (Count)
system.cpu.mmu.dtb.instMisses                       0                       # ITB inst misses (Count)
system.cpu.mmu.dtb.readHits                         0                       # DTB read hits (Count)
system.cpu.mmu.dtb.readMisses                       0                       # DTB read misses (Count)
system.cpu.mmu.dtb.writeHits                        0                       # DTB write hits (Count)
system.cpu.mmu.dtb.writeMisses                      0                       # DTB write misses (Count)
system.cpu.mmu.dtb.inserts                          0                       # Number of times an entry is inserted into the TLB (Count)
system.cpu.mmu.dtb.flushTlb                         0                       # Number of times complete TLB was flushed (Count)
system.cpu.mmu.dtb.flushTlbMva                      0                       # Number of times TLB was flushed by MVA (Count)
system.cpu.mmu.dtb.flushTlbMvaAsid                  0                       # Number of times TLB was flushed by MVA & ASID (Count)
system.cpu.mmu.dtb.flushTlbAsid                     0                       # Number of times TLB was flushed by ASID (Count)
system.cpu.mmu.dtb.flushedEntries                   0                       # Number of entries that have been flushed from TLB (Count)
system.cpu.mmu.dtb.alignFaults                      0                       # Number of TLB faults due to alignment restrictions (Count)
system.cpu.mmu.dtb.prefetchFaults                   0                       # Number of TLB faults due to prefetch (Count)
system.cpu.mmu.dtb.domainFaults                     0                       # Number of TLB faults due to domain restrictions (Count)
system.cpu.mmu.dtb.permsFaults                      0                       # Number of TLB faults due to permissions restrictions (Count)
system.cpu.mmu.dtb.readAccesses                     0                       # DTB read accesses (Count)
system.cpu.mmu.dtb.writeAccesses                    0                       # DTB write accesses (Count)
system.cpu.mmu.dtb.instAccesses                     0                       # ITB inst accesses (Count)
system.cpu.mmu.dtb.hits                             0                       # Total TLB (inst and data) hits (Count)
system.cpu.mmu.dtb.misses                           0                       # Total TLB (inst and data) misses (Count)
system.cpu.mmu.dtb.accesses                         0                       # Total TLB (inst and data) accesses (Count)
system.cpu.mmu.dtb.stage2_mmu.stage2_tlb.instHits            0                       # ITB inst hits (Count)
system.cpu.mmu.dtb.stage2_mmu.stage2_tlb.instMisses            0                       # ITB inst misses (Count)
system.cpu.mmu.dtb.stage2_mmu.stage2_tlb.readHits            0                       # DTB read hits (Count)
system.cpu.mmu.dtb.stage2_mmu.stage2_tlb.readMisses            0                       # DTB read misses (Count)
system.cpu.mmu.dtb.stage2_mmu.stage2_tlb.writeHits            0                       # DTB write hits (Count)
system.cpu.mmu.dtb.stage2_mmu.stage2_tlb.writeMisses            0                       # DTB write misses (Count)
system.cpu.mmu.dtb.stage2_mmu.stage2_tlb.inserts            0                       # Number of times an entry is inserted into the TLB (Count)
system.cpu.mmu.dtb.stage2_mmu.stage2_tlb.flushTlb            0                       # Number of times complete TLB was flushed (Count)
system.cpu.mmu.dtb.stage2_mmu.stage2_tlb.flushTlbMva            0                       # Number of times TLB was flushed by MVA (Count)
system.cpu.mmu.dtb.stage2_mmu.stage2_tlb.flushTlbMvaAsid            0                       # Number of times TLB was flushed by MVA & ASID (Count)
system.cpu.mmu.dtb.stage2_mmu.stage2_tlb.flushTlbAsid            0                       # Number of times TLB was flushed by ASID (Count)
system.cpu.mmu.dtb.stage2_mmu.stage2_tlb.flushedEntries            0                       # Number of entries that have been flushed from TLB (Count)
system.cpu.mmu.dtb.stage2_mmu.stage2_tlb.alignFaults            0                       # Number of TLB faults due to alignment restrictions (Count)
[...]
system.mem_ctrls.dram.perBankWrBursts::3            0                       # Per bank write bursts (Count)
system.mem_ctrls.dram.perBankWrBursts::4            0                       # Per bank write bursts (Count)
system.mem_ctrls.dram.perBankWrBursts::5            0                       # Per bank write bursts (Count)
system.mem_ctrls.dram.perBankWrBursts::6            0                       # Per bank write bursts (Count)
system.mem_ctrls.dram.perBankWrBursts::7            0                       # Per bank write bursts (Count)
system.mem_ctrls.dram.perBankWrBursts::8            0                       # Per bank write bursts (Count)
system.mem_ctrls.dram.perBankWrBursts::9            0                       # Per bank write bursts (Count)
system.mem_ctrls.dram.perBankWrBursts::10            0                       # Per bank write bursts (Count)
system.mem_ctrls.dram.perBankWrBursts::11            0                       # Per bank write bursts (Count)
system.mem_ctrls.dram.perBankWrBursts::12            0                       # Per bank write bursts (Count)
system.mem_ctrls.dram.perBankWrBursts::13            0                       # Per bank write bursts (Count)
system.mem_ctrls.dram.perBankWrBursts::14            0                       # Per bank write bursts (Count)
system.mem_ctrls.dram.perBankWrBursts::15            0                       # Per bank write bursts (Count)
system.mem_ctrls.dram.totQLat                19894250                       # Total ticks spent queuing (Tick)
system.mem_ctrls.dram.totBusLat               9055000                       # Total ticks spent in databus transfers (Tick)
system.mem_ctrls.dram.totMemAccLat           53850500                       # Total ticks spent from burst creation until serviced by the DRAM (Tick)
system.mem_ctrls.dram.avgQLat                10985.23                       # Average queueing delay per DRAM burst ((Tick/Count))
system.mem_ctrls.dram.avgBusLat               5000.00                       # Average bus latency per DRAM burst ((Tick/Count))
system.mem_ctrls.dram.avgMemAccLat           29735.23                       # Average memory access latency per DRAM burst ((Tick/Count))
system.mem_ctrls.dram.readRowHits                1270                       # Number of row buffer hits during reads (Count)
system.mem_ctrls.dram.writeRowHits                  0                       # Number of row buffer hits during writes (Count)
system.mem_ctrls.dram.readRowHitRate            70.13                       # Row buffer hit rate for reads (Ratio)
system.mem_ctrls.dram.writeRowHitRate             nan                       # Row buffer hit rate for writes (Ratio)
system.mem_ctrls.dram.bytesPerActivate::samples          535                       # Bytes accessed per row activation (Byte)
system.mem_ctrls.dram.bytesPerActivate::mean   213.652336                       # Bytes accessed per row activation (Byte)
system.mem_ctrls.dram.bytesPerActivate::gmean   164.236777                       # Bytes accessed per row activation (Byte)
system.mem_ctrls.dram.bytesPerActivate::stdev   202.797787                       # Bytes accessed per row activation (Byte)
system.mem_ctrls.dram.bytesPerActivate::0-127          103     19.25%     19.25% # Bytes accessed per row activation (Byte)
system.mem_ctrls.dram.bytesPerActivate::128-255          340     63.55%     82.80% # Bytes accessed per row activation (Byte)
system.mem_ctrls.dram.bytesPerActivate::256-383           37      6.92%     89.72% # Bytes accessed per row activation (Byte)
system.mem_ctrls.dram.bytesPerActivate::384-511           10      1.87%     91.59% # Bytes accessed per row activation (Byte)
system.mem_ctrls.dram.bytesPerActivate::512-639            9      1.68%     93.27% # Bytes accessed per row activation (Byte)
system.mem_ctrls.dram.bytesPerActivate::640-767           10      1.87%     95.14% # Bytes accessed per row activation (Byte)
system.mem_ctrls.dram.bytesPerActivate::768-895            4      0.75%     95.89% # Bytes accessed per row activation (Byte)
system.mem_ctrls.dram.bytesPerActivate::896-1023            7      1.31%     97.20% # Bytes accessed per row activation (Byte)
system.mem_ctrls.dram.bytesPerActivate::1024-1151           15      2.80%    100.00% # Bytes accessed per row activation (Byte)
system.mem_ctrls.dram.bytesPerActivate::total          535                       # Bytes accessed per row activation (Byte)
system.mem_ctrls.dram.bytesRead                115904                       # Total number of bytes read from DRAM (Byte)
system.mem_ctrls.dram.bytesWritten                  0                       # Total number of bytes written to DRAM (Byte)
system.mem_ctrls.dram.avgRdBW               11.335462                       # Average DRAM read bandwidth in MiBytes/s ((Byte/Second))
system.mem_ctrls.dram.avgWrBW                       0                       # Average DRAM write bandwidth in MiBytes/s ((Byte/Second))
system.mem_ctrls.dram.peakBW                 12800.00                       # Theoretical peak bandwidth in MiByte/s ((Byte/Second))
system.mem_ctrls.dram.busUtil                    0.09                       # Data bus utilization in percentage (Ratio)
system.mem_ctrls.dram.busUtilRead                0.09                       # Data bus utilization in percentage for reads (Ratio)
system.mem_ctrls.dram.busUtilWrite               0.00                       # Data bus utilization in percentage for writes (Ratio)
system.mem_ctrls.dram.pageHitRate               70.13                       # Row buffer hit rate, read and write combined (Ratio)
system.mem_ctrls.dram.power_state.pwrStateResidencyTicks::UNDEFINED  10224903500                       # Cumulative time (in ticks) in various power states (Tick)
system.mem_ctrls.dram.rank0.actEnergy         2163420                       # Energy for activate commands per rank (pJ) (Joule)
system.mem_ctrls.dram.rank0.preEnergy         1142295                       # Energy for precharge commands per rank (pJ) (Joule)
system.mem_ctrls.dram.rank0.readEnergy        6818700                       # Energy for read commands per rank (pJ) (Joule)
system.mem_ctrls.dram.rank0.writeEnergy             0                       # Energy for write commands per rank (pJ) (Joule)
system.mem_ctrls.dram.rank0.refreshEnergy 807022320.000000                       # Energy for refresh commands per rank (pJ) (Joule)
system.mem_ctrls.dram.rank0.actBackEnergy    695881650                       # Energy for active background per rank (pJ) (Joule)
system.mem_ctrls.dram.rank0.preBackEnergy   3340357440                       # Energy for precharge background per rank (pJ) (Joule)
system.mem_ctrls.dram.rank0.actPowerDownEnergy            0                       # Energy for active power-down per rank (pJ) (Joule)
system.mem_ctrls.dram.rank0.prePowerDownEnergy            0                       # Energy for precharge power-down per rank (pJ) (Joule)
system.mem_ctrls.dram.rank0.selfRefreshEnergy            0                       # Energy for self refresh per rank (pJ) (Joule)
system.mem_ctrls.dram.rank0.totalEnergy    4853385825                       # Total energy per rank (pJ) (Joule)
system.mem_ctrls.dram.rank0.averagePower   474.663240                       # Core power per rank (mW) (Watt)
system.mem_ctrls.dram.rank0.totalIdleTime            0                       # Total Idle time Per DRAM Rank (Tick)
system.mem_ctrls.dram.rank0.pwrStateTime::IDLE   8678008750                       # Time in different power states (Tick)
system.mem_ctrls.dram.rank0.pwrStateTime::REF    341380000                       # Time in different power states (Tick)
system.mem_ctrls.dram.rank0.pwrStateTime::SREF            0                       # Time in different power states (Tick)
system.mem_ctrls.dram.rank0.pwrStateTime::PRE_PDN            0                       # Time in different power states (Tick)
system.mem_ctrls.dram.rank0.pwrStateTime::ACT   1205514750                       # Time in different power states (Tick)
system.mem_ctrls.dram.rank0.pwrStateTime::ACT_PDN            0                       # Time in different power states (Tick)
system.mem_ctrls.dram.rank1.actEnergy         1699320                       # Energy for activate commands per rank (pJ) (Joule)
system.mem_ctrls.dram.rank1.preEnergy          888030                       # Energy for precharge commands per rank (pJ) (Joule)
system.mem_ctrls.dram.rank1.readEnergy        6111840                       # Energy for read commands per rank (pJ) (Joule)
system.mem_ctrls.dram.rank1.writeEnergy             0                       # Energy for write commands per rank (pJ) (Joule)
system.mem_ctrls.dram.rank1.refreshEnergy 807022320.000000                       # Energy for refresh commands per rank (pJ) (Joule)
system.mem_ctrls.dram.rank1.actBackEnergy    540203820                       # Energy for active background per rank (pJ) (Joule)
system.mem_ctrls.dram.rank1.preBackEnergy   3471454560                       # Energy for precharge background per rank (pJ) (Joule)
system.mem_ctrls.dram.rank1.actPowerDownEnergy            0                       # Energy for active power-down per rank (pJ) (Joule)
system.mem_ctrls.dram.rank1.prePowerDownEnergy            0                       # Energy for precharge power-down per rank (pJ) (Joule)
system.mem_ctrls.dram.rank1.selfRefreshEnergy            0                       # Energy for self refresh per rank (pJ) (Joule)
system.mem_ctrls.dram.rank1.totalEnergy    4827379890                       # Total energy per rank (pJ) (Joule)
system.mem_ctrls.dram.rank1.averagePower   472.119848                       # Core power per rank (mW) (Watt)
system.mem_ctrls.dram.rank1.totalIdleTime            0                       # Total Idle time Per DRAM Rank (Tick)
system.mem_ctrls.dram.rank1.pwrStateTime::IDLE   9020220000                       # Time in different power states (Tick)
system.mem_ctrls.dram.rank1.pwrStateTime::REF    341380000                       # Time in different power states (Tick)
system.mem_ctrls.dram.rank1.pwrStateTime::SREF            0                       # Time in different power states (Tick)
system.mem_ctrls.dram.rank1.pwrStateTime::PRE_PDN            0                       # Time in different power states (Tick)
system.mem_ctrls.dram.rank1.pwrStateTime::ACT    863303500                       # Time in different power states (Tick)
system.mem_ctrls.dram.rank1.pwrStateTime::ACT_PDN            0                       # Time in different power states (Tick)
system.mem_ctrls.power_state.pwrStateResidencyTicks::UNDEFINED  10224903500                       # Cumulative time (in ticks) in various power states (Tick)
system.membus.transDist::ReadResp                 974                       # Transaction distribution (Count)
system.membus.transDist::ReadExReq                837                       # Transaction distribution (Count)
system.membus.transDist::ReadExResp               837                       # Transaction distribution (Count)
system.membus.transDist::ReadSharedReq            974                       # Transaction distribution (Count)
system.membus.pktCount_system.l2.mem_side_port::system.mem_ctrls.port         3622                       # Packet count per connected requestor and responder (Count)
system.membus.pktCount::total                    3622                       # Packet count per connected requestor and responder (Count)
system.membus.pktSize_system.l2.mem_side_port::system.mem_ctrls.port       115904                       # Cumulative packet size per connected requestor and responder (Byte)
system.membus.pktSize::total                   115904                       # Cumulative packet size per connected requestor and responder (Byte)
system.membus.snoops                                0                       # Total snoops (Count)
system.membus.snoopTraffic                          0                       # Total snoop traffic (Byte)
system.membus.snoopFanout::samples               1811                       # Request fanout histogram
system.membus.snoopFanout::mean                     0                       # Request fanout histogram
system.membus.snoopFanout::stdev                    0                       # Request fanout histogram
system.membus.snoopFanout::underflows               0      0.00%      0.00% # Request fanout histogram
system.membus.snoopFanout::0                     1811    100.00%    100.00% # Request fanout histogram
system.membus.snoopFanout::1                        0      0.00%    100.00% # Request fanout histogram
system.membus.snoopFanout::overflows                0      0.00%    100.00% # Request fanout histogram
system.membus.snoopFanout::min_value                0                       # Request fanout histogram
system.membus.snoopFanout::max_value                0                       # Request fanout histogram
system.membus.snoopFanout::total                 1811                       # Request fanout histogram
system.membus.power_state.pwrStateResidencyTicks::UNDEFINED  10224903500                       # Cumulative time (in ticks) in various power states (Tick)
system.membus.reqLayer0.occupancy             2250000                       # Layer occupancy (ticks) (Tick)
system.membus.reqLayer0.utilization               0.0                       # Layer utilization (Ratio)
system.membus.respLayer1.occupancy            9627500                       # Layer occupancy (ticks) (Tick)
system.membus.respLayer1.utilization              0.0                       # Layer utilization (Ratio)
system.membus.snoop_filter.totRequests           1811                       # Total number of requests made to the snoop filter. (Count)
system.membus.snoop_filter.hitSingleRequests            0                       # Number of requests hitting in the snoop filter with a single holder of the requested data. (Count)
system.membus.snoop_filter.hitMultiRequests            0                       # Number of requests hitting in the snoop filter with multiple (>1) holders of the requested data. (Count)
system.membus.snoop_filter.totSnoops                0                       # Total number of snoops made to the snoop filter. (Count)
system.membus.snoop_filter.hitSingleSnoops            0                       # Number of snoops hitting in the snoop filter with a single holder of the requested data. (Count)
system.membus.snoop_filter.hitMultiSnoops            0                       # Number of snoops hitting in the snoop filter with multiple (>1) holders of the requested data. (Count)
system.tol2bus.transDist::ReadResp              23032                       # Transaction distribution (Count)
system.tol2bus.transDist::WritebackDirty        19250                       # Transaction distribution (Count)
system.tol2bus.transDist::WritebackClean          426                       # Transaction distribution (Count)
system.tol2bus.transDist::CleanEvict             3160                       # Transaction distribution (Count)
system.tol2bus.transDist::ReadExReq              1138                       # Transaction distribution (Count)
system.tol2bus.transDist::ReadExResp             1138                       # Transaction distribution (Count)
system.tol2bus.transDist::ReadCleanReq            884                       # Transaction distribution (Count)
system.tol2bus.transDist::ReadSharedReq         22148                       # Transaction distribution (Count)
system.tol2bus.pktCount_system.cpu.icache.mem_side_port::system.l2.cpu_side_port         2194                       # Packet count per connected requestor and responder (Count)
system.tol2bus.pktCount_system.cpu.dcache.mem_side_port::system.l2.cpu_side_port        68982                       # Packet count per connected requestor and responder (Count)
system.tol2bus.pktCount::total                  71176                       # Packet count per connected requestor and responder (Count)
system.tol2bus.pktSize_system.cpu.icache.mem_side_port::system.l2.cpu_side_port        83840                       # Cumulative packet size per connected requestor and responder (Byte)
system.tol2bus.pktSize_system.cpu.dcache.mem_side_port::system.l2.cpu_side_port      2722304                       # Cumulative packet size per connected requestor and responder (Byte)
system.tol2bus.pktSize::total                 2806144                       # Cumulative packet size per connected requestor and responder (Byte)
system.tol2bus.snoops                               0                       # Total snoops (Count)
system.tol2bus.snoopTraffic                         0                       # Total snoop traffic (Byte)
system.tol2bus.snoopFanout::samples             24170                       # Request fanout histogram
system.tol2bus.snoopFanout::mean             0.005916                       # Request fanout histogram
system.tol2bus.snoopFanout::stdev            0.076692                       # Request fanout histogram
system.tol2bus.snoopFanout::underflows              0      0.00%      0.00% # Request fanout histogram
system.tol2bus.snoopFanout::0                   24027     99.41%     99.41% # Request fanout histogram
system.tol2bus.snoopFanout::1                     143      0.59%    100.00% # Request fanout histogram
system.tol2bus.snoopFanout::2                       0      0.00%    100.00% # Request fanout histogram
system.tol2bus.snoopFanout::overflows               0      0.00%    100.00% # Request fanout histogram
system.tol2bus.snoopFanout::min_value               0                       # Request fanout histogram
system.tol2bus.snoopFanout::max_value               1                       # Request fanout histogram
system.tol2bus.snoopFanout::total               24170                       # Request fanout histogram
system.tol2bus.power_state.pwrStateResidencyTicks::UNDEFINED  10224903500                       # Cumulative time (in ticks) in various power states (Tick)
system.tol2bus.reqLayer0.occupancy           43179000                       # Layer occupancy (ticks) (Tick)
system.tol2bus.reqLayer0.utilization              0.0                       # Layer utilization (Ratio)
system.tol2bus.respLayer0.occupancy           1326499                       # Layer occupancy (ticks) (Tick)
system.tol2bus.respLayer0.utilization             0.0                       # Layer utilization (Ratio)
system.tol2bus.respLayer1.occupancy          34932493                       # Layer occupancy (ticks) (Tick)
system.tol2bus.respLayer1.utilization             0.0                       # Layer utilization (Ratio)
system.tol2bus.snoop_filter.totRequests         47006                       # Total number of requests made to the snoop filter. (Count)
system.tol2bus.snoop_filter.hitSingleRequests        22862                       # Number of requests hitting in the snoop filter with a single holder of the requested data. (Count)
system.tol2bus.snoop_filter.hitMultiRequests          117                       # Number of requests hitting in the snoop filter with multiple (>1) holders of the requested data. (Count)
system.tol2bus.snoop_filter.totSnoops               0                       # Total number of snoops made to the snoop filter. (Count)
system.tol2bus.snoop_filter.hitSingleSnoops            0                       # Number of snoops hitting in the snoop filter with a single holder of the requested data. (Count)
system.tol2bus.snoop_filter.hitMultiSnoops            0                       # Number of snoops hitting in the snoop filter with multiple (>1) holders of the requested data. (Count)
system.voltage_domain.voltage                       1                       # Voltage in Volts (Volt)
system.workload.inst.arm                            0                       # number of arm instructions executed (Count)
system.workload.inst.quiesce                        0                       # number of quiesce instructions executed (Count)

---------- End Simulation Statistics   ----------
